# UNNAMED

data_3D
_audit_creation_date            2013-03-19
_audit_creation_method          P_cif.py

_symmetry_space_group_name_H-M  'P1'
_symmetry_Int_Tables_number     1
_symmetry_cell_setting          triclinic

_cell_length_a                  5.74
_cell_length_b                  7.71
_cell_length_c                  5.54
_cell_angle_alpha               90
_cell_angle_beta                90
_cell_angle_gamma               90

loop_
  _atom_site_label
  _atom_site_type_symbol
  _atom_site_fract_x
  _atom_site_fract_y
  _atom_site_fract_z
  _atom_site_U_iso_or_equiv
  _atom_site_adp_type
  _atom_site_occupancy
  La1   La     0.050000    0.250000    0.990000    0.005000 Uiso  1.0000
  La2   La     0.450000    0.750000    0.490000    0.005000 Uiso  1.0000
  La3   La     0.950000    0.750000    0.010000    0.005000 Uiso  1.0000
  La4   La     0.550000    0.250000    0.510000    0.005000 Uiso  1.0000
  Ca1   Ca     0.050000    0.250000    0.990000    0.005000 Uiso  0.0000
  Ca2   Ca     0.450000    0.750000    0.490000    0.005000 Uiso  0.0000
  Ca3   Ca     0.950000    0.750000    0.010000    0.005000 Uiso  0.0000
  Ca4   Ca     0.550000    0.250000    0.510000    0.005000 Uiso  0.0000
  Mn1   Mn     0.500000    0.000000    0.000000    0.005000 Uiso  1.0000
  Mn2   Mn     0.000000    0.000000    0.500000    0.005000 Uiso  1.0000
  Mn3   Mn     0.500000    0.500000    0.000000    0.005000 Uiso  1.0000
  Mn4   Mn     0.000000    0.500000    0.500000    0.005000 Uiso  1.0000
  O1    O      0.490000    0.250000    0.070000    0.005000 Uiso  1.0000
  O2    O      0.010000    0.750000    0.570000    0.005000 Uiso  1.0000
  O3    O      0.510000    0.750000    0.930000    0.005000 Uiso  1.0000
  O4    O      0.990000    0.250000    0.430000    0.005000 Uiso  1.0000
  O5    O      0.310000    0.040000    0.730000    0.005000 Uiso  1.0000
  O6    O      0.190000    0.960000    0.230000    0.005000 Uiso  1.0000
  O7    O      0.690000    0.540000    0.270000    0.005000 Uiso  1.0000
  O8    O      0.810000    0.460000    0.770000    0.005000 Uiso  1.0000
  O9    O      0.690000    0.960000    0.270000    0.005000 Uiso  1.0000
  O10   O      0.810000    0.040000    0.770000    0.005000 Uiso  1.0000
  O11   O      0.310000    0.460000    0.730000    0.005000 Uiso  1.0000
  O12   O      0.190000    0.540000    0.230000    0.005000 Uiso  1.0000
